   16
scf done:  -346.650009
 C     1.219248    -0.002757    -0.114667
 C    -0.044289    -0.809471    -0.485895
 C    -0.490499    -1.335649     0.936578
 C     0.876947    -1.575270     1.633138
 C     1.964299    -1.227210     0.466330
 C     1.751883    -2.254691    -0.600172
 C     0.557450    -1.996391    -1.194290
 H     0.047486    -2.608600    -1.935481
 H    -0.851414    -0.282828    -1.009080
 H     2.963881    -1.111334     0.891432
 H     2.380018    -3.130026    -0.754677
 H     1.734999     0.400351    -0.995621
 H     1.047029     0.787591     0.624463
 O     1.079131    -2.586063     2.368665
 H    -1.090006    -0.588865     1.474596
 H    -1.057450    -2.277709     0.888497
