   16
scf done:  -346.783006
 C     1.208176    -0.031362    -0.092141
 C    -0.068362    -0.825544    -0.483487
 C    -0.488509    -1.386346     0.908813
 C     0.880936    -1.729860     1.528702
 C     1.936809    -1.268274     0.495630
 C     1.745567    -2.266491    -0.648572
 C     0.566552    -1.996822    -1.233965
 H     0.082599    -2.567084    -2.025048
 H    -0.850352    -0.272229    -1.013374
 H     2.943100    -1.159095     0.907426
 H     2.411411    -3.103366    -0.848273
 H     1.736075     0.386963    -0.957675
 H     1.015868     0.759036     0.647709
 O     1.086731    -2.246046     2.603489
 H    -0.976648    -0.626768     1.536839
 H    -1.141240    -2.265634     0.867744
