   19
scf done:  -385.967941
 C     0.579704    -2.124005    -1.350535
 C    -0.126853    -1.010925    -0.539833
 C     1.020349    -0.156678    -0.081386
 C     1.864357    -1.252163     0.544605
 C     1.944262    -2.294429    -0.603490
 C     0.873778    -1.755994     1.621182
 C    -0.491836    -1.707126     0.857940
 H    -0.988786    -0.528766    -1.006101
 H     2.833213    -0.944144     0.953650
 C     1.191773     1.168854    -0.126616
 H     2.083683    -3.312007    -0.216842
 H     2.787483    -2.069539    -1.268631
 H     0.727741    -1.770956    -2.381807
 H    -0.014248    -3.044184    -1.380816
 H     2.087644     1.638770     0.280960
 H     0.445302     1.824922    -0.574690
 O    -1.559569    -1.320407     1.436183
 H     1.084937    -2.766699     1.997590
 H     0.818537    -1.059903     2.472675
