   19
scf done:  -385.969271
 C     0.504453    -2.077341    -1.256469
 C    -0.140490    -0.899064    -0.476205
 C     1.057274    -0.087195    -0.060026
 C     1.849491    -1.200724     0.591439
 C     1.895616    -2.243583    -0.558830
 C     0.843175    -1.705491     1.657374
 C    -0.525909    -1.445822     0.963564
 H    -0.973591    -0.388223    -0.966906
 H     2.827821    -0.920502     1.000020
 C     1.317573     1.211850    -0.230969
 H     2.056718    -3.260246    -0.177659
 H     2.714284    -2.010278    -1.251085
 H     0.613565    -1.810942    -2.317338
 H    -0.118064    -2.977263    -1.196277
 H     2.261718     1.649265     0.095517
 H     0.598960     1.877479    -0.709523
 O    -1.483382    -2.290497     1.035045
 H     0.973662    -2.773053     1.895872
 H     0.888600    -1.133747     2.596494
