   19
scf done:  -385.972375
 C     0.731901    -1.902528    -1.303821
 C     0.065731    -0.793651    -0.540199
 C     1.120115     0.096081     0.165168
 C     1.760649    -0.836538     1.230886
 C     0.996253    -2.163604     1.068666
 C     1.366058    -2.831454    -0.273860
 C    -0.459905    -1.603633     0.757536
 H    -0.718657    -0.255463    -1.080703
 H     1.013477    -2.829444     1.937037
 H     2.835909    -0.993955     1.061694
 H     1.634119    -0.433282     2.241846
 H     0.629384     0.958511     0.630703
 H     1.843847     0.470512    -0.572083
 H     2.454655    -2.935118    -0.401695
 H     0.924209    -3.834282    -0.346702
 O    -1.464250    -2.357703     0.660854
 C     0.688370    -2.081163    -2.631564
 H     0.153327    -1.387542    -3.280930
 H     1.184836    -2.925639    -3.111720
