   19
scf done:  -385.974416
 C     0.775598    -1.940779    -1.371753
 C     0.093084    -0.855822    -0.633308
 C     1.052534     0.036489     0.185064
 C     1.652658    -0.899859     1.273252
 C     0.981752    -2.263330     0.987686
 C     1.481933    -2.822204    -0.354736
 C    -0.486319    -1.850141     0.606391
 H    -0.694520    -0.327354    -1.177697
 H     1.008113    -2.971962     1.822405
 H     2.748520    -0.969193     1.216126
 H     1.389399    -0.551399     2.278633
 H     0.478050     0.853679     0.636221
 H     1.818050     0.483195    -0.465159
 H     2.577590    -2.751715    -0.435071
 H     1.201679    -3.873196    -0.500352
 O    -1.316003    -1.306842     1.369848
 C     0.687018    -2.153380    -2.701881
 H     0.077073    -1.512624    -3.338434
 H     1.233821    -2.963457    -3.186120
